@<TRIPOS>MOLECULE
SP
  138   137     1     0     0
SMALL
bcc


@<TRIPOS>ATOM
      1 C           14.9640   -12.7460   -13.4250 c3         1 SP       -0.093100
      2 C1          14.9440   -11.2460   -13.5670 c3         1 SP       -0.079400
      3 C2          15.7960   -10.7870   -14.7320 c3         1 SP       -0.079400
      4 C3          15.7740    -9.2800   -14.8710 c3         1 SP       -0.078400
      5 C4          16.6260    -8.8240   -16.0360 c3         1 SP       -0.079400
      6 C5          16.6050    -7.3170   -16.1740 c3         1 SP       -0.077400
      7 C6          17.4580    -6.8620   -17.3390 c3         1 SP       -0.076400
      8 C7          17.4350    -5.3550   -17.4750 c3         1 SP       -0.110400
      9 C8          18.2960    -4.9140   -18.6420 c3         1 SP        0.138400
     10 O           18.1640    -3.5020   -18.8630 os         1 SP       -0.439900
     11 C9          18.9100    -2.6600   -18.0900 c          1 SP        0.630100
     12 O1          19.6590    -3.1340   -17.2330 o          1 SP       -0.542000
     13 C10         18.7000    -1.2200   -18.4490 c3         1 SP       -0.130400
     14 C11         19.1020    -0.3160   -17.3040 c3         1 SP       -0.080400
     15 C12         19.0520     1.1390   -17.7170 c3         1 SP       -0.078400
     16 C13         19.4610     2.0350   -16.5670 c3         1 SP       -0.079400
     17 C14         19.4440     3.4920   -16.9800 c3         1 SP       -0.078400
     18 C15         19.8660     4.3780   -15.8230 c3         1 SP       -0.104400
     19 C16         19.8630     5.8310   -16.2790 c3         1 SP        0.104800
     20 N           20.2140     6.8030   -15.1860 n4         1 SP       -0.678400
     21 H           19.7260     6.4970   -14.3320 hn         1 SP        0.448800
     22 C17         19.7320     8.1810   -15.5240 c3         1 SP        0.099800
     23 C18         18.3100     8.4710   -15.0290 c3         1 SP        0.110400
     24 O2          17.4600     7.4680   -15.5510 oh         1 SP       -0.624800
     25 C19         21.6900     6.7990   -14.9140 c3         1 SP        0.098800
     26 C20         22.0540     7.3170   -13.5270 c3         1 SP       -0.102400
     27 C21         23.5570     7.2660   -13.3280 c3         1 SP       -0.083400
     28 C22         24.2790     8.3650   -14.0770 c3         1 SP       -0.082400
     29 C23         25.7710     8.3110   -13.8200 c3         1 SP       -0.079400
     30 C24         26.4890     9.3700   -14.6280 c3         1 SP       -0.080400
     31 C25         27.9830     9.3190   -14.3900 c3         1 SP       -0.131400
     32 C26         28.7030    10.2160   -15.3530 c          1 SP        0.632100
     33 O3          28.3190    10.6060   -16.4580 o          1 SP       -0.550000
     34 O4          29.9290    10.5890   -14.8930 os         1 SP       -0.437900
     35 C27         30.7490    11.4320   -15.7410 c3         1 SP        0.149100
     36 C28         30.3690    12.8870   -15.4880 c3         1 SP       -0.090400
     37 C29         30.8690    13.7930   -16.5910 c3         1 SP       -0.078900
     38 C30         30.4780    15.2320   -16.3290 c3         1 SP       -0.078900
     39 C31         30.9750    16.1440   -17.4300 c3         1 SP       -0.078900
     40 C32         30.5860    17.5830   -17.1700 c3         1 SP       -0.078900
     41 C33         31.0820    18.4950   -18.2710 c3         1 SP       -0.078900
     42 C34         30.6940    19.9350   -18.0120 c3         1 SP       -0.079900
     43 C35         31.1860    20.8460   -19.1060 c3         1 SP       -0.093100
     44 C36         32.1860    11.1290   -15.3360 c3         1 SP       -0.090400
     45 C37         32.6660     9.8160   -15.9150 c3         1 SP       -0.078900
     46 C38         34.0850     9.5140   -15.4810 c3         1 SP       -0.078900
     47 C39         34.5700     8.2050   -16.0660 c3         1 SP       -0.078900
     48 C40         35.9870     7.9010   -15.6300 c3         1 SP       -0.078900
     49 C41         36.4730     6.5920   -16.2150 c3         1 SP       -0.078900
     50 C42         37.8900     6.2860   -15.7780 c3         1 SP       -0.079900
     51 C43         38.3790     4.9840   -16.3580 c3         1 SP       -0.093100
     52 H1          14.3300   -13.0620   -12.5610 hc         1 SP        0.034033
     53 H2          16.0050   -13.1120   -13.2510 hc         1 SP        0.034033
     54 H3          14.5710   -13.2350   -14.3490 hc         1 SP        0.034033
     55 H4          15.3190   -10.7720   -12.6210 hc         1 SP        0.038200
     56 H5          13.8890   -10.8950   -13.7160 hc         1 SP        0.038200
     57 H6          15.4220   -11.2580   -15.6790 hc         1 SP        0.040700
     58 H7          16.8520   -11.1360   -14.5850 hc         1 SP        0.040700
     59 H8          16.1490    -8.8100   -13.9240 hc         1 SP        0.039200
     60 H9          14.7180    -8.9320   -15.0180 hc         1 SP        0.039200
     61 H10         16.2510    -9.2940   -16.9830 hc         1 SP        0.041200
     62 H11         17.6820    -9.1740   -15.8890 hc         1 SP        0.041200
     63 H12         16.9810    -6.8470   -15.2270 hc         1 SP        0.040700
     64 H13         15.5490    -6.9670   -16.3210 hc         1 SP        0.040700
     65 H14         17.0810    -7.3320   -18.2860 hc         1 SP        0.043700
     66 H15         18.5140    -7.2110   -17.1910 hc         1 SP        0.043700
     67 H16         17.8210    -4.8780   -16.5350 hc         1 SP        0.054700
     68 H17         16.3830    -4.9980   -17.6280 hc         1 SP        0.054700
     69 H18         17.9330    -5.3520   -19.6110 h1         1 SP        0.066700
     70 H19         19.3720    -5.1760   -18.4730 h1         1 SP        0.066700
     71 H20         17.6240    -1.0590   -18.7250 hc         1 SP        0.080200
     72 H21         19.3200    -1.0040   -19.3600 hc         1 SP        0.080200
     73 H22         20.1390    -0.5850   -16.9650 hc         1 SP        0.060700
     74 H23         18.4170    -0.4890   -16.4320 hc         1 SP        0.060700
     75 H24         18.0140     1.4020   -18.0530 hc         1 SP        0.045700
     76 H25         19.7370     1.3080   -18.5900 hc         1 SP        0.045700
     77 H26         20.4900     1.7520   -16.2200 hc         1 SP        0.049700
     78 H27         18.7630     1.8790   -15.7030 hc         1 SP        0.049700
     79 H28         18.4130     3.7760   -17.3190 hc         1 SP        0.054700
     80 H29         20.1380     3.6460   -17.8490 hc         1 SP        0.054700
     81 H30         20.8850     4.0670   -15.4730 hc         1 SP        0.063200
     82 H31         19.1530     4.2350   -14.9670 hc         1 SP        0.063200
     83 H32         18.8270     6.0980   -16.6480 hx         1 SP        0.111700
     84 H33         20.5990     5.9800   -17.1190 hx         1 SP        0.111700
     85 H34         19.7770     8.3040   -16.6430 hx         1 SP        0.109700
     86 H35         20.4240     8.9340   -15.0480 hx         1 SP        0.109700
     87 H36         18.0190     9.4920   -15.3970 h1         1 SP        0.069200
     88 H37         18.2620     8.4530   -13.9050 h1         1 SP        0.069200
     89 H38         16.5530     7.8010   -15.5130 ho         1 SP        0.448000
     90 H39         22.1890     7.4220   -15.7100 hx         1 SP        0.104700
     91 H40         22.0550     5.7360   -15.0180 hx         1 SP        0.104700
     92 H41         21.5600     6.6830   -12.7430 hc         1 SP        0.061700
     93 H42         21.6960     8.3710   -13.3900 hc         1 SP        0.061700
     94 H43         23.9520     6.2650   -13.6450 hc         1 SP        0.065700
     95 H44         23.7670     7.3710   -12.2290 hc         1 SP        0.065700
     96 H45         23.8820     9.3660   -13.7600 hc         1 SP        0.040200
     97 H46         24.0920     8.2670   -15.1790 hc         1 SP        0.040200
     98 H47         26.1650     7.2960   -14.0910 hc         1 SP        0.049700
     99 H48         25.9720     8.4650   -12.7270 hc         1 SP        0.049700
    100 H49         26.1020    10.3870   -14.3530 hc         1 SP        0.058700
    101 H50         26.2840     9.2250   -15.7220 hc         1 SP        0.058700
    102 H51         28.3730     8.2770   -14.5430 hc         1 SP        0.081200
    103 H52         28.2310     9.6230   -13.3390 hc         1 SP        0.081200
    104 H53         30.5640    11.1610   -16.8170 h1         1 SP        0.074700
    105 H54         30.7830    13.2160   -14.4990 hc         1 SP        0.055450
    106 H55         29.2500    12.9560   -15.4260 hc         1 SP        0.055450
    107 H56         30.4410    13.4610   -17.5740 hc         1 SP        0.043450
    108 H57         31.9850    13.7180   -16.6720 hc         1 SP        0.043450
    109 H58         30.9030    15.5650   -15.3450 hc         1 SP        0.041200
    110 H59         29.3620    15.3110   -16.2510 hc         1 SP        0.041200
    111 H60         30.5500    15.8120   -18.4140 hc         1 SP        0.039950
    112 H61         32.0920    16.0650   -17.5090 hc         1 SP        0.039950
    113 H62         31.0110    17.9160   -16.1860 hc         1 SP        0.039950
    114 H63         29.4690    17.6620   -17.0900 hc         1 SP        0.039950
    115 H64         30.6570    18.1630   -19.2550 hc         1 SP        0.039700
    116 H65         32.1990    18.4160   -18.3500 hc         1 SP        0.039700
    117 H66         31.1190    20.2650   -17.0270 hc         1 SP        0.038950
    118 H67         29.5770    20.0120   -17.9310 hc         1 SP        0.038950
    119 H68         32.3000    20.8020   -19.1850 hc         1 SP        0.033867
    120 H69         30.8890    21.9010   -18.8950 hc         1 SP        0.033867
    121 H70         30.7540    20.5480   -20.0920 hc         1 SP        0.033867
    122 H71         32.2570    11.0990   -14.2170 hc         1 SP        0.055450
    123 H72         32.8370    11.9670   -15.6990 hc         1 SP        0.055450
    124 H73         32.6160     9.8540   -17.0350 hc         1 SP        0.043450
    125 H74         31.9840     8.9920   -15.5780 hc         1 SP        0.043450
    126 H75         34.1340     9.4670   -14.3610 hc         1 SP        0.041200
    127 H76         34.7630    10.3460   -15.8070 hc         1 SP        0.041200
    128 H77         34.5240     8.2530   -17.1860 hc         1 SP        0.039950
    129 H78         33.8900     7.3730   -15.7430 hc         1 SP        0.039950
    130 H79         36.0340     7.8530   -14.5100 hc         1 SP        0.039950
    131 H80         36.6670     8.7320   -15.9530 hc         1 SP        0.039950
    132 H81         36.4280     6.6400   -17.3340 hc         1 SP        0.039700
    133 H82         35.7940     5.7600   -15.8920 hc         1 SP        0.039700
    134 H83         37.9340     6.2400   -14.6580 hc         1 SP        0.038950
    135 H84         38.5690     7.1200   -16.1000 hc         1 SP        0.038950
    136 H85         37.7300     4.1370   -16.0270 hc         1 SP        0.033867
    137 H86         39.4240     4.7790   -16.0230 hc         1 SP        0.033867
    138 H87         38.3660     5.0200   -17.4740 hc         1 SP        0.033867
@<TRIPOS>BOND
     1     1     2 1   
     2     1    52 1   
     3     1    53 1   
     4     1    54 1   
     5     2     3 1   
     6     2    55 1   
     7     2    56 1   
     8     3     4 1   
     9     3    57 1   
    10     3    58 1   
    11     4     5 1   
    12     4    59 1   
    13     4    60 1   
    14     5     6 1   
    15     5    61 1   
    16     5    62 1   
    17     6     7 1   
    18     6    63 1   
    19     6    64 1   
    20     7     8 1   
    21     7    65 1   
    22     7    66 1   
    23     8     9 1   
    24     8    67 1   
    25     8    68 1   
    26     9    10 1   
    27     9    69 1   
    28     9    70 1   
    29    10    11 1   
    30    11    12 2   
    31    11    13 1   
    32    13    14 1   
    33    13    71 1   
    34    13    72 1   
    35    14    15 1   
    36    14    73 1   
    37    14    74 1   
    38    15    16 1   
    39    15    75 1   
    40    15    76 1   
    41    16    17 1   
    42    16    77 1   
    43    16    78 1   
    44    17    18 1   
    45    17    79 1   
    46    17    80 1   
    47    18    19 1   
    48    18    81 1   
    49    18    82 1   
    50    19    20 1   
    51    19    83 1   
    52    19    84 1   
    53    20    21 1   
    54    20    22 1   
    55    20    25 1   
    56    22    23 1   
    57    22    85 1   
    58    22    86 1   
    59    23    24 1   
    60    23    87 1   
    61    23    88 1   
    62    24    89 1   
    63    25    26 1   
    64    25    90 1   
    65    25    91 1   
    66    26    27 1   
    67    26    92 1   
    68    26    93 1   
    69    27    28 1   
    70    27    94 1   
    71    27    95 1   
    72    28    29 1   
    73    28    96 1   
    74    28    97 1   
    75    29    30 1   
    76    29    98 1   
    77    29    99 1   
    78    30    31 1   
    79    30   100 1   
    80    30   101 1   
    81    31    32 1   
    82    31   102 1   
    83    31   103 1   
    84    32    33 2   
    85    32    34 1   
    86    34    35 1   
    87    35    36 1   
    88    35    44 1   
    89    35   104 1   
    90    36    37 1   
    91    36   105 1   
    92    36   106 1   
    93    37    38 1   
    94    37   107 1   
    95    37   108 1   
    96    38    39 1   
    97    38   109 1   
    98    38   110 1   
    99    39    40 1   
   100    39   111 1   
   101    39   112 1   
   102    40    41 1   
   103    40   113 1   
   104    40   114 1   
   105    41    42 1   
   106    41   115 1   
   107    41   116 1   
   108    42    43 1   
   109    42   117 1   
   110    42   118 1   
   111    43   119 1   
   112    43   120 1   
   113    43   121 1   
   114    44    45 1   
   115    44   122 1   
   116    44   123 1   
   117    45    46 1   
   118    45   124 1   
   119    45   125 1   
   120    46    47 1   
   121    46   126 1   
   122    46   127 1   
   123    47    48 1   
   124    47   128 1   
   125    47   129 1   
   126    48    49 1   
   127    48   130 1   
   128    48   131 1   
   129    49    50 1   
   130    49   132 1   
   131    49   133 1   
   132    50    51 1   
   133    50   134 1   
   134    50   135 1   
   135    51   136 1   
   136    51   137 1   
   137    51   138 1   
@<TRIPOS>SUBSTRUCTURE
     1 SP          1 TEMP              0 ****  ****    0 ROOT
