@<TRIPOS>MOLECULE
RP
  138   137     1     0     0
SMALL
bcc


@<TRIPOS>ATOM
      1 C            2.4110     8.1550   -19.9850 c3         1 RP       -0.093100
      2 C1           3.8110     8.3350   -19.4570 c3         1 RP       -0.079400
      3 C2           4.2110     7.1940   -18.5440 c3         1 RP       -0.079400
      4 C3           5.6170     7.3790   -18.0160 c3         1 RP       -0.078400
      5 C4           6.0150     6.2380   -17.1040 c3         1 RP       -0.079400
      6 C5           7.4210     6.4230   -16.5750 c3         1 RP       -0.077400
      7 C6           7.8180     5.2820   -15.6630 c3         1 RP       -0.076400
      8 C7           9.2230     5.4690   -15.1360 c3         1 RP       -0.110400
      9 C8           9.6050     4.3220   -14.2210 c3         1 RP        0.138400
     10 O           10.9840     4.4200   -13.8340 os         1 RP       -0.438900
     11 C9          11.3020     5.2540   -12.8020 c          1 RP        0.630100
     12 O1          10.4070     5.8940   -12.2460 o          1 RP       -0.542000
     13 C10         12.7660     5.2320   -12.4820 c3         1 RP       -0.130400
     14 C11         13.1820     6.5070   -11.7810 c3         1 RP       -0.080400
     15 C12         14.6100     6.4150   -11.2880 c3         1 RP       -0.078400
     16 C13         15.0180     7.6950   -10.5890 c3         1 RP       -0.079400
     17 C14         16.4320     7.5970   -10.0550 c3         1 RP       -0.079400
     18 C15         16.8240     8.8830    -9.3530 c3         1 RP       -0.106400
     19 C16         18.2370     8.7430    -8.8000 c3         1 RP        0.106800
     20 N           18.7410     9.9860    -8.1270 n4         1 RP       -0.684400
     21 H           18.4080    10.8030    -8.6670 hn         1 RP        0.467800
     22 C17         18.1810    10.1110    -6.7430 c3         1 RP        0.100800
     23 C18         18.1830    11.5510    -6.2130 c3         1 RP        0.111400
     24 O2          17.5590    12.3540    -7.1970 oh         1 RP       -0.628800
     25 C19         20.2410    10.0180    -8.1070 c3         1 RP        0.106800
     26 C20         20.8560    10.4490    -9.4330 c3         1 RP       -0.106400
     27 C21         22.3660    10.4910    -9.2950 c3         1 RP       -0.079400
     28 C22         23.0070    10.8960   -10.6060 c3         1 RP       -0.079400
     29 C23         24.5160    10.9320   -10.4840 c3         1 RP       -0.078400
     30 C24         25.1490    11.3070   -11.8070 c3         1 RP       -0.080400
     31 C25         26.6580    11.3410   -11.6970 c3         1 RP       -0.130400
     32 C26         27.2860    11.5390   -13.0450 c          1 RP        0.632100
     33 O3          26.8130    11.2670   -14.1500 o          1 RP       -0.545000
     34 O4          28.5370    12.0700   -12.9570 os         1 RP       -0.440900
     35 C27         29.2740    12.2840   -14.1870 c3         1 RP        0.149100
     36 C28         28.8900    13.6480   -14.7490 c3         1 RP       -0.090400
     37 C29         29.2880    13.7830   -16.2030 c3         1 RP       -0.078900
     38 C30         28.8950    15.1400   -16.7480 c3         1 RP       -0.078900
     39 C31         29.2910    15.2810   -18.2020 c3         1 RP       -0.078900
     40 C32         28.9000    16.6380   -18.7480 c3         1 RP       -0.078900
     41 C33         29.2960    16.7790   -20.2020 c3         1 RP       -0.079400
     42 C34         28.9060    18.1360   -20.7500 c3         1 RP       -0.079900
     43 C35         29.2990    18.2800   -22.1980 c3         1 RP       -0.093100
     44 C36         30.7440    12.2130   -13.7900 c3         1 RP       -0.090400
     45 C37         31.2000    10.7860   -13.5840 c3         1 RP       -0.078900
     46 C38         32.6530    10.7320   -13.1630 c3         1 RP       -0.078900
     47 C39         33.1150     9.3040   -12.9660 c3         1 RP       -0.078900
     48 C40         34.5670     9.2500   -12.5410 c3         1 RP       -0.078900
     49 C41         35.0290     7.8220   -12.3450 c3         1 RP       -0.079400
     50 C42         36.4810     7.7670   -11.9200 c3         1 RP       -0.079900
     51 C43         36.9470     6.3480   -11.7230 c3         1 RP       -0.093100
     52 H1           2.1370     9.0060   -20.6540 hc         1 RP        0.034033
     53 H2           1.6750     8.1160   -19.1450 hc         1 RP        0.034033
     54 H3           2.3280     7.2060   -20.5670 hc         1 RP        0.034033
     55 H4           3.8810     9.3040   -18.8960 hc         1 RP        0.038200
     56 H5           4.5320     8.3970   -20.3140 hc         1 RP        0.038200
     57 H6           4.1430     6.2240   -19.1040 hc         1 RP        0.040700
     58 H7           3.4910     7.1310   -17.6850 hc         1 RP        0.040700
     59 H8           5.6850     8.3490   -17.4560 hc         1 RP        0.039200
     60 H9           6.3360     7.4420   -18.8750 hc         1 RP        0.039200
     61 H10          5.9470     5.2680   -17.6630 hc         1 RP        0.041200
     62 H11          5.2960     6.1750   -16.2450 hc         1 RP        0.041200
     63 H12          7.4890     7.3930   -16.0150 hc         1 RP        0.040700
     64 H13          8.1410     6.4860   -17.4340 hc         1 RP        0.040700
     65 H14          7.7500     4.3120   -16.2230 hc         1 RP        0.043700
     66 H15          7.0990     5.2210   -14.8030 hc         1 RP        0.043700
     67 H16          9.2970     6.4320   -14.5650 hc         1 RP        0.054700
     68 H17          9.9490     5.5260   -15.9890 hc         1 RP        0.054700
     69 H18          9.5660     3.3360   -14.7570 h1         1 RP        0.066700
     70 H19          8.9520     4.2990   -13.3100 h1         1 RP        0.066700
     71 H20         13.3520     5.0880   -13.4280 hc         1 RP        0.079700
     72 H21         12.9550     4.3400   -11.8250 hc         1 RP        0.079700
     73 H22         12.4890     6.7000   -10.9180 hc         1 RP        0.061200
     74 H23         13.0770     7.3730   -12.4860 hc         1 RP        0.061200
     75 H24         15.2980     6.2200   -12.1530 hc         1 RP        0.045700
     76 H25         14.7110     5.5490   -10.5810 hc         1 RP        0.045700
     77 H26         14.3080     7.9020    -9.7440 hc         1 RP        0.050700
     78 H27         14.9420     8.5550   -11.3050 hc         1 RP        0.050700
     79 H28         17.1400     7.3930   -10.9010 hc         1 RP        0.053700
     80 H29         16.5050     6.7350    -9.3400 hc         1 RP        0.053700
     81 H30         16.0920     9.0950    -8.5290 hc         1 RP        0.067700
     82 H31         16.7710     9.7370   -10.0800 hc         1 RP        0.067700
     83 H32         18.9420     8.5020    -9.6470 hx         1 RP        0.100200
     84 H33         18.2820     7.9010    -8.0520 hx         1 RP        0.100200
     85 H34         18.7790     9.4560    -6.0500 hx         1 RP        0.108200
     86 H35         17.1150     9.7420    -6.7730 hx         1 RP        0.108200
     87 H36         19.2280    11.9220    -6.0320 h1         1 RP        0.069200
     88 H37         17.6130    11.5630    -5.2450 h1         1 RP        0.069200
     89 H38         17.2770    13.1760    -6.7730 ho         1 RP        0.451000
     90 H39         20.6060     8.9900    -7.8230 hx         1 RP        0.098200
     91 H40         20.5580    10.7440    -7.3030 hx         1 RP        0.098200
     92 H41         20.4800    11.4650    -9.7270 hc         1 RP        0.067200
     93 H42         20.5780     9.7340   -10.2520 hc         1 RP        0.067200
     94 H43         22.7470     9.4830    -8.9850 hc         1 RP        0.053700
     95 H44         22.6540    11.2210    -8.4930 hc         1 RP        0.053700
     96 H45         22.6310    11.9070   -10.9150 hc         1 RP        0.050700
     97 H46         22.7140    10.1710   -11.4100 hc         1 RP        0.050700
     98 H47         24.8930     9.9280   -10.1560 hc         1 RP        0.045700
     99 H48         24.8160    11.6740    -9.6970 hc         1 RP        0.045700
    100 H49         24.7750    12.3120   -12.1380 hc         1 RP        0.061200
    101 H50         24.8520    10.5690   -12.6000 hc         1 RP        0.061200
    102 H51         27.0460    10.3720   -11.2830 hc         1 RP        0.079200
    103 H52         26.9890    12.1620   -11.0070 hc         1 RP        0.079200
    104 H53         29.0120    11.4710   -14.9190 h1         1 RP        0.075700
    105 H54         29.3730    14.4550   -14.1390 hc         1 RP        0.054950
    106 H55         27.7780    13.7710   -14.6530 hc         1 RP        0.054950
    107 H56         28.7900    12.9780   -16.8060 hc         1 RP        0.043700
    108 H57         30.3950    13.6440   -16.3110 hc         1 RP        0.043700
    109 H58         29.3880    15.9470   -16.1440 hc         1 RP        0.040700
    110 H59         27.7860    15.2800   -16.6450 hc         1 RP        0.040700
    111 H60         28.7960    14.4750   -18.8060 hc         1 RP        0.040200
    112 H61         30.3990    15.1390   -18.3060 hc         1 RP        0.040200
    113 H62         29.3940    17.4430   -18.1440 hc         1 RP        0.039700
    114 H63         27.7910    16.7800   -18.6450 hc         1 RP        0.039700
    115 H64         28.8010    15.9740   -20.8070 hc         1 RP        0.039700
    116 H65         30.4040    16.6370   -20.3060 hc         1 RP        0.039700
    117 H66         29.4010    18.9390   -20.1430 hc         1 RP        0.038950
    118 H67         27.7980    18.2770   -20.6440 hc         1 RP        0.038950
    119 H68         30.4030    18.1670   -22.3200 hc         1 RP        0.033700
    120 H69         29.0030    19.2870   -22.5810 hc         1 RP        0.033700
    121 H70         28.7960    17.5030   -22.8230 hc         1 RP        0.033700
    122 H71         30.9010    12.8030   -12.8490 hc         1 RP        0.054950
    123 H72         31.3500    12.6950   -14.6020 hc         1 RP        0.054950
    124 H73         31.0620    10.2020   -14.5320 hc         1 RP        0.043700
    125 H74         30.5600    10.3020   -12.7990 hc         1 RP        0.043700
    126 H75         32.7910    11.3070   -12.2090 hc         1 RP        0.040700
    127 H76         33.2890    11.2280   -13.9430 hc         1 RP        0.040700
    128 H77         32.9800     8.7300   -13.9200 hc         1 RP        0.040200
    129 H78         32.4770     8.8070   -12.1880 hc         1 RP        0.040200
    130 H79         34.7020     9.8240   -11.5870 hc         1 RP        0.039700
    131 H80         35.2050     9.7480   -13.3190 hc         1 RP        0.039700
    132 H81         34.8960     7.2490   -13.3000 hc         1 RP        0.039700
    133 H82         34.3920     7.3240   -11.5680 hc         1 RP        0.039700
    134 H83         36.6140     8.3430   -10.9660 hc         1 RP        0.038950
    135 H84         37.1170     8.2680   -12.6980 hc         1 RP        0.038950
    136 H85         36.3410     5.8400   -10.9340 hc         1 RP        0.033700
    137 H86         38.0190     6.3300   -11.4110 hc         1 RP        0.033700
    138 H87         36.8460     5.7650   -12.6710 hc         1 RP        0.033700
@<TRIPOS>BOND
     1     1     2 1   
     2     1    52 1   
     3     1    53 1   
     4     1    54 1   
     5     2     3 1   
     6     2    55 1   
     7     2    56 1   
     8     3     4 1   
     9     3    57 1   
    10     3    58 1   
    11     4     5 1   
    12     4    59 1   
    13     4    60 1   
    14     5     6 1   
    15     5    61 1   
    16     5    62 1   
    17     6     7 1   
    18     6    63 1   
    19     6    64 1   
    20     7     8 1   
    21     7    65 1   
    22     7    66 1   
    23     8     9 1   
    24     8    67 1   
    25     8    68 1   
    26     9    10 1   
    27     9    69 1   
    28     9    70 1   
    29    10    11 1   
    30    11    12 2   
    31    11    13 1   
    32    13    14 1   
    33    13    71 1   
    34    13    72 1   
    35    14    15 1   
    36    14    73 1   
    37    14    74 1   
    38    15    16 1   
    39    15    75 1   
    40    15    76 1   
    41    16    17 1   
    42    16    77 1   
    43    16    78 1   
    44    17    18 1   
    45    17    79 1   
    46    17    80 1   
    47    18    19 1   
    48    18    81 1   
    49    18    82 1   
    50    19    20 1   
    51    19    83 1   
    52    19    84 1   
    53    20    21 1   
    54    20    22 1   
    55    20    25 1   
    56    22    23 1   
    57    22    85 1   
    58    22    86 1   
    59    23    24 1   
    60    23    87 1   
    61    23    88 1   
    62    24    89 1   
    63    25    26 1   
    64    25    90 1   
    65    25    91 1   
    66    26    27 1   
    67    26    92 1   
    68    26    93 1   
    69    27    28 1   
    70    27    94 1   
    71    27    95 1   
    72    28    29 1   
    73    28    96 1   
    74    28    97 1   
    75    29    30 1   
    76    29    98 1   
    77    29    99 1   
    78    30    31 1   
    79    30   100 1   
    80    30   101 1   
    81    31    32 1   
    82    31   102 1   
    83    31   103 1   
    84    32    33 2   
    85    32    34 1   
    86    34    35 1   
    87    35    36 1   
    88    35    44 1   
    89    35   104 1   
    90    36    37 1   
    91    36   105 1   
    92    36   106 1   
    93    37    38 1   
    94    37   107 1   
    95    37   108 1   
    96    38    39 1   
    97    38   109 1   
    98    38   110 1   
    99    39    40 1   
   100    39   111 1   
   101    39   112 1   
   102    40    41 1   
   103    40   113 1   
   104    40   114 1   
   105    41    42 1   
   106    41   115 1   
   107    41   116 1   
   108    42    43 1   
   109    42   117 1   
   110    42   118 1   
   111    43   119 1   
   112    43   120 1   
   113    43   121 1   
   114    44    45 1   
   115    44   122 1   
   116    44   123 1   
   117    45    46 1   
   118    45   124 1   
   119    45   125 1   
   120    46    47 1   
   121    46   126 1   
   122    46   127 1   
   123    47    48 1   
   124    47   128 1   
   125    47   129 1   
   126    48    49 1   
   127    48   130 1   
   128    48   131 1   
   129    49    50 1   
   130    49   132 1   
   131    49   133 1   
   132    50    51 1   
   133    50   134 1   
   134    50   135 1   
   135    51   136 1   
   136    51   137 1   
   137    51   138 1   
@<TRIPOS>SUBSTRUCTURE
     1 RP          1 TEMP              0 ****  ****    0 ROOT
