@<TRIPOS>MOLECULE
RN
  137   136     1     0     0
SMALL
bcc


@<TRIPOS>ATOM
      1 C            2.4110     8.1550   -19.9850 c3         1 RN       -0.092100
      2 C1           3.8110     8.3350   -19.4570 c3         1 RN       -0.080400
      3 C2           4.2110     7.1940   -18.5440 c3         1 RN       -0.079400
      4 C3           5.6170     7.3790   -18.0160 c3         1 RN       -0.079400
      5 C4           6.0150     6.2380   -17.1040 c3         1 RN       -0.079400
      6 C5           7.4210     6.4230   -16.5750 c3         1 RN       -0.078400
      7 C6           7.8180     5.2820   -15.6630 c3         1 RN       -0.075400
      8 C7           9.2230     5.4690   -15.1360 c3         1 RN       -0.110400
      9 C8           9.6050     4.3220   -14.2210 c3         1 RN        0.138400
     10 O           10.9840     4.4200   -13.8340 os         1 RN       -0.443900
     11 C9          11.3020     5.2540   -12.8020 c          1 RN        0.631100
     12 O1          10.4070     5.8940   -12.2460 o          1 RN       -0.543000
     13 C10         12.7660     5.2320   -12.4820 c3         1 RN       -0.128400
     14 C11         13.1820     6.5070   -11.7810 c3         1 RN       -0.079400
     15 C12         14.6100     6.4150   -11.2880 c3         1 RN       -0.078400
     16 C13         15.0180     7.6950   -10.5890 c3         1 RN       -0.078400
     17 C14         16.4320     7.5970   -10.0550 c3         1 RN       -0.079400
     18 C15         16.8240     8.8830    -9.3530 c3         1 RN       -0.083400
     19 C16         18.2370     8.7430    -8.8000 c3         1 RN        0.175800
     20 N           18.7410     9.9860    -8.1270 n3         1 RN       -0.754600
     21 C17         18.1810    10.1110    -6.7430 c3         1 RN        0.129800
     22 C18         18.1830    11.5510    -6.2130 c3         1 RN        0.134400
     23 O2          17.5590    12.3540    -7.1970 oh         1 RN       -0.602800
     24 C19         20.2410    10.0180    -8.1070 c3         1 RN        0.174800
     25 C20         20.8560    10.4490    -9.4330 c3         1 RN       -0.081400
     26 C21         22.3660    10.4910    -9.2950 c3         1 RN       -0.080400
     27 C22         23.0070    10.8960   -10.6060 c3         1 RN       -0.078400
     28 C23         24.5160    10.9320   -10.4840 c3         1 RN       -0.078400
     29 C24         25.1490    11.3070   -11.8070 c3         1 RN       -0.079400
     30 C25         26.6580    11.3410   -11.6970 c3         1 RN       -0.128400
     31 C26         27.2860    11.5390   -13.0450 c          1 RN        0.632100
     32 O3          26.8130    11.2670   -14.1500 o          1 RN       -0.546000
     33 O4          28.5370    12.0700   -12.9570 os         1 RN       -0.444900
     34 C27         29.2740    12.2840   -14.1870 c3         1 RN        0.149100
     35 C28         28.8900    13.6480   -14.7490 c3         1 RN       -0.090400
     36 C29         29.2880    13.7830   -16.2030 c3         1 RN       -0.078900
     37 C30         28.8950    15.1400   -16.7480 c3         1 RN       -0.078400
     38 C31         29.2910    15.2810   -18.2020 c3         1 RN       -0.078900
     39 C32         28.9000    16.6380   -18.7480 c3         1 RN       -0.079400
     40 C33         29.2960    16.7790   -20.2020 c3         1 RN       -0.079400
     41 C34         28.9060    18.1360   -20.7500 c3         1 RN       -0.080400
     42 C35         29.2990    18.2800   -22.1980 c3         1 RN       -0.092100
     43 C36         30.7440    12.2130   -13.7900 c3         1 RN       -0.090400
     44 C37         31.2000    10.7860   -13.5840 c3         1 RN       -0.078900
     45 C38         32.6530    10.7320   -13.1630 c3         1 RN       -0.078400
     46 C39         33.1150     9.3040   -12.9660 c3         1 RN       -0.078900
     47 C40         34.5670     9.2500   -12.5410 c3         1 RN       -0.079400
     48 C41         35.0290     7.8220   -12.3450 c3         1 RN       -0.079400
     49 C42         36.4810     7.7670   -11.9200 c3         1 RN       -0.080400
     50 C43         36.9470     6.3480   -11.7230 c3         1 RN       -0.092100
     51 H1           2.1370     9.0060   -20.6540 hc         1 RN        0.032700
     52 H2           1.6750     8.1160   -19.1450 hc         1 RN        0.032700
     53 H3           2.3280     7.2060   -20.5670 hc         1 RN        0.032700
     54 H4           3.8810     9.3040   -18.8960 hc         1 RN        0.038700
     55 H5           4.5320     8.3970   -20.3140 hc         1 RN        0.038700
     56 H6           4.1430     6.2240   -19.1040 hc         1 RN        0.039200
     57 H7           3.4910     7.1310   -17.6850 hc         1 RN        0.039200
     58 H8           5.6850     8.3490   -17.4560 hc         1 RN        0.040200
     59 H9           6.3360     7.4420   -18.8750 hc         1 RN        0.040200
     60 H10          5.9470     5.2680   -17.6630 hc         1 RN        0.039700
     61 H11          5.2960     6.1750   -16.2450 hc         1 RN        0.039700
     62 H12          7.4890     7.3930   -16.0150 hc         1 RN        0.041700
     63 H13          8.1410     6.4860   -17.4340 hc         1 RN        0.041700
     64 H14          7.7500     4.3120   -16.2230 hc         1 RN        0.040700
     65 H15          7.0990     5.2210   -14.8030 hc         1 RN        0.040700
     66 H16          9.2970     6.4320   -14.5650 hc         1 RN        0.056700
     67 H17          9.9490     5.5260   -15.9890 hc         1 RN        0.056700
     68 H18          9.5660     3.3360   -14.7570 h1         1 RN        0.062700
     69 H19          8.9520     4.2990   -13.3100 h1         1 RN        0.062700
     70 H20         13.3520     5.0880   -13.4280 hc         1 RN        0.077700
     71 H21         12.9550     4.3400   -11.8250 hc         1 RN        0.077700
     72 H22         12.4890     6.7000   -10.9180 hc         1 RN        0.058200
     73 H23         13.0770     7.3730   -12.4860 hc         1 RN        0.058200
     74 H24         15.2980     6.2200   -12.1530 hc         1 RN        0.040700
     75 H25         14.7110     5.5490   -10.5810 hc         1 RN        0.040700
     76 H26         14.3080     7.9020    -9.7440 hc         1 RN        0.044700
     77 H27         14.9420     8.5550   -11.3050 hc         1 RN        0.044700
     78 H28         17.1400     7.3930   -10.9010 hc         1 RN        0.039200
     79 H29         16.5050     6.7350    -9.3400 hc         1 RN        0.039200
     80 H30         16.0920     9.0950    -8.5290 hc         1 RN        0.049700
     81 H31         16.7710     9.7370   -10.0800 hc         1 RN        0.049700
     82 H32         18.9420     8.5020    -9.6470 h1         1 RN        0.031700
     83 H33         18.2820     7.9010    -8.0520 h1         1 RN        0.031700
     84 H34         18.7790     9.4560    -6.0500 h1         1 RN        0.043200
     85 H35         17.1150     9.7420    -6.7730 h1         1 RN        0.043200
     86 H36         19.2280    11.9220    -6.0320 h1         1 RN        0.043200
     87 H37         17.6130    11.5630    -5.2450 h1         1 RN        0.043200
     88 H38         17.2770    13.1760    -6.7730 ho         1 RN        0.412000
     89 H39         20.6060     8.9900    -7.8230 h1         1 RN        0.030700
     90 H40         20.5580    10.7440    -7.3030 h1         1 RN        0.030700
     91 H41         20.4800    11.4650    -9.7270 hc         1 RN        0.048700
     92 H42         20.5780     9.7340   -10.2520 hc         1 RN        0.048700
     93 H43         22.7470     9.4830    -8.9850 hc         1 RN        0.039200
     94 H44         22.6540    11.2210    -8.4930 hc         1 RN        0.039200
     95 H45         22.6310    11.9070   -10.9150 hc         1 RN        0.043700
     96 H46         22.7140    10.1710   -11.4100 hc         1 RN        0.043700
     97 H47         24.8930     9.9280   -10.1560 hc         1 RN        0.040700
     98 H48         24.8160    11.6740    -9.6970 hc         1 RN        0.040700
     99 H49         24.7750    12.3120   -12.1380 hc         1 RN        0.057700
    100 H50         24.8520    10.5690   -12.6000 hc         1 RN        0.057700
    101 H51         27.0460    10.3720   -11.2830 hc         1 RN        0.077200
    102 H52         26.9890    12.1620   -11.0070 hc         1 RN        0.077200
    103 H53         29.0120    11.4710   -14.9190 h1         1 RN        0.073700
    104 H54         29.3730    14.4550   -14.1390 hc         1 RN        0.054200
    105 H55         27.7780    13.7710   -14.6530 hc         1 RN        0.054200
    106 H56         28.7900    12.9780   -16.8060 hc         1 RN        0.043700
    107 H57         30.3950    13.6440   -16.3110 hc         1 RN        0.043700
    108 H58         29.3880    15.9470   -16.1440 hc         1 RN        0.040200
    109 H59         27.7860    15.2800   -16.6450 hc         1 RN        0.040200
    110 H60         28.7960    14.4750   -18.8060 hc         1 RN        0.039950
    111 H61         30.3990    15.1390   -18.3060 hc         1 RN        0.039950
    112 H62         29.3940    17.4430   -18.1440 hc         1 RN        0.039700
    113 H63         27.7910    16.7800   -18.6450 hc         1 RN        0.039700
    114 H64         28.8010    15.9740   -20.8070 hc         1 RN        0.039450
    115 H65         30.4040    16.6370   -20.3060 hc         1 RN        0.039450
    116 H66         29.4010    18.9390   -20.1430 hc         1 RN        0.038450
    117 H67         27.7980    18.2770   -20.6440 hc         1 RN        0.038450
    118 H68         30.4030    18.1670   -22.3200 hc         1 RN        0.032700
    119 H69         29.0030    19.2870   -22.5810 hc         1 RN        0.032700
    120 H70         28.7960    17.5030   -22.8230 hc         1 RN        0.032700
    121 H71         30.9010    12.8030   -12.8490 hc         1 RN        0.054200
    122 H72         31.3500    12.6950   -14.6020 hc         1 RN        0.054200
    123 H73         31.0620    10.2020   -14.5320 hc         1 RN        0.043700
    124 H74         30.5600    10.3020   -12.7990 hc         1 RN        0.043700
    125 H75         32.7910    11.3070   -12.2090 hc         1 RN        0.040200
    126 H76         33.2890    11.2280   -13.9430 hc         1 RN        0.040200
    127 H77         32.9800     8.7300   -13.9200 hc         1 RN        0.039950
    128 H78         32.4770     8.8070   -12.1880 hc         1 RN        0.039950
    129 H79         34.7020     9.8240   -11.5870 hc         1 RN        0.039700
    130 H80         35.2050     9.7480   -13.3190 hc         1 RN        0.039700
    131 H81         34.8960     7.2490   -13.3000 hc         1 RN        0.039450
    132 H82         34.3920     7.3240   -11.5680 hc         1 RN        0.039450
    133 H83         36.6140     8.3430   -10.9660 hc         1 RN        0.038450
    134 H84         37.1170     8.2680   -12.6980 hc         1 RN        0.038450
    135 H85         36.3410     5.8400   -10.9340 hc         1 RN        0.032700
    136 H86         38.0190     6.3300   -11.4110 hc         1 RN        0.032700
    137 H87         36.8460     5.7650   -12.6710 hc         1 RN        0.032700
@<TRIPOS>BOND
     1     1     2 1   
     2     1    51 1   
     3     1    52 1   
     4     1    53 1   
     5     2     3 1   
     6     2    54 1   
     7     2    55 1   
     8     3     4 1   
     9     3    56 1   
    10     3    57 1   
    11     4     5 1   
    12     4    58 1   
    13     4    59 1   
    14     5     6 1   
    15     5    60 1   
    16     5    61 1   
    17     6     7 1   
    18     6    62 1   
    19     6    63 1   
    20     7     8 1   
    21     7    64 1   
    22     7    65 1   
    23     8     9 1   
    24     8    66 1   
    25     8    67 1   
    26     9    10 1   
    27     9    68 1   
    28     9    69 1   
    29    10    11 1   
    30    11    12 2   
    31    11    13 1   
    32    13    14 1   
    33    13    70 1   
    34    13    71 1   
    35    14    15 1   
    36    14    72 1   
    37    14    73 1   
    38    15    16 1   
    39    15    74 1   
    40    15    75 1   
    41    16    17 1   
    42    16    76 1   
    43    16    77 1   
    44    17    18 1   
    45    17    78 1   
    46    17    79 1   
    47    18    19 1   
    48    18    80 1   
    49    18    81 1   
    50    19    20 1   
    51    19    82 1   
    52    19    83 1   
    53    20    21 1   
    54    20    24 1   
    55    21    22 1   
    56    21    84 1   
    57    21    85 1   
    58    22    23 1   
    59    22    86 1   
    60    22    87 1   
    61    23    88 1   
    62    24    25 1   
    63    24    89 1   
    64    24    90 1   
    65    25    26 1   
    66    25    91 1   
    67    25    92 1   
    68    26    27 1   
    69    26    93 1   
    70    26    94 1   
    71    27    28 1   
    72    27    95 1   
    73    27    96 1   
    74    28    29 1   
    75    28    97 1   
    76    28    98 1   
    77    29    30 1   
    78    29    99 1   
    79    29   100 1   
    80    30    31 1   
    81    30   101 1   
    82    30   102 1   
    83    31    32 2   
    84    31    33 1   
    85    33    34 1   
    86    34    35 1   
    87    34    43 1   
    88    34   103 1   
    89    35    36 1   
    90    35   104 1   
    91    35   105 1   
    92    36    37 1   
    93    36   106 1   
    94    36   107 1   
    95    37    38 1   
    96    37   108 1   
    97    37   109 1   
    98    38    39 1   
    99    38   110 1   
   100    38   111 1   
   101    39    40 1   
   102    39   112 1   
   103    39   113 1   
   104    40    41 1   
   105    40   114 1   
   106    40   115 1   
   107    41    42 1   
   108    41   116 1   
   109    41   117 1   
   110    42   118 1   
   111    42   119 1   
   112    42   120 1   
   113    43    44 1   
   114    43   121 1   
   115    43   122 1   
   116    44    45 1   
   117    44   123 1   
   118    44   124 1   
   119    45    46 1   
   120    45   125 1   
   121    45   126 1   
   122    46    47 1   
   123    46   127 1   
   124    46   128 1   
   125    47    48 1   
   126    47   129 1   
   127    47   130 1   
   128    48    49 1   
   129    48   131 1   
   130    48   132 1   
   131    49    50 1   
   132    49   133 1   
   133    49   134 1   
   134    50   135 1   
   135    50   136 1   
   136    50   137 1   
@<TRIPOS>SUBSTRUCTURE
     1 RN          1 TEMP              0 ****  ****    0 ROOT
